Version 4.1
SHEET 1 880 680
WIRE 512 -96 176 -96
WIRE 784 -96 512 -96
WIRE 512 -80 512 -96
WIRE 480 -64 208 -64
WIRE 176 0 176 -96
WIRE 240 0 176 0
WIRE 480 0 480 -64
WIRE 480 0 464 0
WIRE 592 0 480 0
WIRE 688 0 592 0
WIRE 688 48 688 0
WIRE 240 64 176 64
WIRE 528 64 464 64
WIRE 528 112 528 64
WIRE 592 112 592 80
WIRE 592 112 528 112
WIRE 240 128 64 128
WIRE 528 128 464 128
WIRE 592 128 592 112
WIRE 208 192 208 -64
WIRE 240 192 208 192
WIRE 512 192 512 -16
WIRE 512 192 464 192
WIRE 688 224 688 128
WIRE 784 224 784 -96
WIRE 784 224 688 224
WIRE 528 240 528 128
WIRE 528 240 480 240
WIRE 176 272 176 64
WIRE 528 272 528 240
WIRE 528 272 176 272
WIRE 592 272 592 208
WIRE 592 272 528 272
WIRE 480 304 480 240
WIRE 512 304 480 304
WIRE 688 304 688 224
WIRE 688 304 576 304
WIRE 688 320 688 304
FLAG 688 320 0
SYMBOL Misc\\NE555 352 96 R0
SYMATTR InstName U1
SYMBOL voltage 688 32 R0
WINDOW 123 0 0 Left 0
WINDOW 39 0 0 Left 0
SYMATTR InstName V1
SYMATTR Value 5
SYMBOL res 576 -16 R0
SYMATTR InstName R1
SYMATTR Value 1K
SYMBOL res 576 112 R0
SYMATTR InstName R2
SYMATTR Value 10K
SYMBOL cap 576 288 R90
WINDOW 0 0 32 VBottom 2
WINDOW 3 32 32 VTop 2
SYMATTR InstName C1
SYMATTR Value 47n
SYMBOL cap 496 -80 R0
SYMATTR InstName C2
SYMATTR Value 100n
TEXT 120 -128 Left 2 !.tran 50m
